MODEL 1
REMARK VINA RESULT:      -7.9      0.000      0.000
REMARK  5 active torsions:
REMARK  status: ('A' for Active; 'I' for Inactive)
REMARK    1  A    between atoms: C_3  and  C_24 
REMARK    2  A    between atoms: C_6  and  C_7 
REMARK       I    between atoms: C_7  and  N_9 
REMARK    3  A    between atoms: N_9  and  N_10 
REMARK    4  A    between atoms: C_14  and  C_22 
REMARK    5  A    between atoms: C_17  and  C_21 
ROOT
HETATM    1  N   UNK     0      -8.307   3.229 -10.295  1.00  0.00    -0.156 N 
HETATM    2  C   UNK     0      -8.616   4.436  -9.735  1.00  0.00     0.279 C 
HETATM    3  O   UNK     0      -8.900   4.764  -8.595  1.00  0.00    -0.265 OA
HETATM    4  C   UNK     0      -8.625   5.399 -10.843  1.00  0.00     0.041 C 
HETATM    5  C   UNK     0      -9.427   6.502 -11.012  1.00  0.00     0.049 C 
HETATM    6  C   UNK     0     -10.669   6.061 -11.455  1.00  0.00    -0.026 C 
HETATM    7  C   UNK     0     -10.543   5.338 -12.655  1.00  0.00    -0.026 C 
HETATM    8  C   UNK     0      -9.213   5.270 -13.047  1.00  0.00     0.049 C 
HETATM    9  C   UNK     0      -8.506   4.670 -12.033  1.00  0.00     0.041 C 
HETATM   10  C   UNK     0      -8.470   3.247 -11.660  1.00  0.00     0.279 C 
HETATM   11  O   UNK     0      -8.717   2.379 -12.479  1.00  0.00    -0.265 OA
ENDROOT
BRANCH   1  12
HETATM   12  N   UNK     0      -8.259   2.025  -9.501  1.00  0.00    -0.118 NA
HETATM   13  C   UNK     0      -7.057   1.779  -8.964  1.00  0.00     0.295 C 
HETATM   14  O   UNK     0      -6.027   2.448  -9.048  1.00  0.00    -0.264 OA
BRANCH  13  15
HETATM   15  C   UNK     0      -7.001   0.574  -8.098  1.00  0.00     0.059 A 
HETATM   16  C   UNK     0      -5.945   0.463  -7.196  1.00  0.00     0.005 A 
HETATM   17  C   UNK     0      -5.945  -0.559  -6.251  1.00  0.00     0.004 A 
HETATM   18  C   UNK     0      -7.019  -1.453  -6.154  1.00  0.00     0.071 A 
HETATM   19  C   UNK     0      -8.035  -1.379  -7.113  1.00  0.00     0.004 A 
HETATM   20  C   UNK     0      -8.036  -0.364  -8.072  1.00  0.00     0.005 A 
BRANCH  18  21
HETATM   21  C   UNK     0      -7.034  -2.539  -5.062  1.00  0.00     0.419 C 
HETATM   22  F   UNK     0      -7.049  -3.625  -3.970  1.00  0.00    -0.166 F 
HETATM   23  F   UNK     0      -7.682  -3.497  -5.910  1.00  0.00    -0.166 F 
HETATM   24  F   UNK     0      -8.144  -1.955  -4.364  1.00  0.00    -0.166 F 
ENDBRANCH  18  21
ENDBRANCH  13  15
ENDBRANCH   1  12
BRANCH   5  25
HETATM   25  C   UNK     0      -8.808   7.269 -11.974  1.00  0.00     0.009 A 
HETATM   26  C   UNK     0      -8.935   8.658 -11.658  1.00  0.00     0.009 A 
HETATM   27  C   UNK     0      -7.673   8.107 -11.964  1.00  0.00     0.001 A 
ENDBRANCH   5  25
TORSDOF 5
ENDMDL
MODEL 2
REMARK VINA RESULT:      -7.8      4.775      9.012
REMARK  5 active torsions:
REMARK  status: ('A' for Active; 'I' for Inactive)
REMARK    1  A    between atoms: C_3  and  C_24 
REMARK    2  A    between atoms: C_6  and  C_7 
REMARK       I    between atoms: C_7  and  N_9 
REMARK    3  A    between atoms: N_9  and  N_10 
REMARK    4  A    between atoms: C_14  and  C_22 
REMARK    5  A    between atoms: C_17  and  C_21 
ROOT
HETATM    1  N   UNK     0      -8.013   1.525  -8.129  1.00  0.00    -0.156 N 
HETATM    2  C   UNK     0      -9.000   0.632  -7.823  1.00  0.00     0.279 C 
HETATM    3  O   UNK     0     -10.212   0.743  -7.740  1.00  0.00    -0.265 OA
HETATM    4  C   UNK     0      -8.315  -0.626  -7.503  1.00  0.00     0.041 C 
HETATM    5  C   UNK     0      -8.666  -1.583  -6.583  1.00  0.00     0.049 C 
HETATM    6  C   UNK     0      -8.293  -1.121  -5.325  1.00  0.00    -0.026 C 
HETATM    7  C   UNK     0      -6.912  -0.859  -5.280  1.00  0.00    -0.026 C 
HETATM    8  C   UNK     0      -6.322  -1.133  -6.506  1.00  0.00     0.049 C 
HETATM    9  C   UNK     0      -6.941  -0.354  -7.454  1.00  0.00     0.041 C 
HETATM   10  C   UNK     0      -6.783   1.089  -7.698  1.00  0.00     0.279 C 
HETATM   11  O   UNK     0      -5.760   1.669  -7.378  1.00  0.00    -0.265 OA
ENDROOT
BRANCH   1  12
HETATM   12  N   UNK     0      -8.318   2.900  -8.447  1.00  0.00    -0.118 NA
HETATM   13  C   UNK     0      -8.365   3.152  -9.762  1.00  0.00     0.295 C 
HETATM   14  O   UNK     0      -8.206   2.371 -10.700  1.00  0.00    -0.264 OA
BRANCH  13  15
HETATM   15  C   UNK     0      -8.733   4.548 -10.111  1.00  0.00     0.059 A 
HETATM   16  C   UNK     0      -7.708   5.436 -10.430  1.00  0.00     0.005 A 
HETATM   17  C   UNK     0      -8.014   6.700 -10.925  1.00  0.00     0.004 A 
HETATM   18  C   UNK     0      -9.342   7.081 -11.162  1.00  0.00     0.071 A 
HETATM   19  C   UNK     0     -10.363   6.211 -10.767  1.00  0.00     0.004 A 
HETATM   20  C   UNK     0     -10.063   4.945 -10.257  1.00  0.00     0.005 A 
BRANCH  18  21
HETATM   21  C   UNK     0      -9.661   8.459 -11.770  1.00  0.00     0.419 C 
HETATM   22  F   UNK     0      -9.981   9.837 -12.379  1.00  0.00    -0.166 F 
HETATM   23  F   UNK     0      -8.278   8.789 -11.952  1.00  0.00    -0.166 F 
HETATM   24  F   UNK     0      -9.950   9.058 -10.498  1.00  0.00    -0.166 F 
ENDBRANCH  18  21
ENDBRANCH  13  15
ENDBRANCH   1  12
BRANCH   5  25
HETATM   25  C   UNK     0      -7.952  -2.709  -6.923  1.00  0.00     0.009 A 
HETATM   26  C   UNK     0      -8.759  -3.878  -6.759  1.00  0.00     0.009 A 
HETATM   27  C   UNK     0      -8.065  -3.652  -7.967  1.00  0.00     0.001 A 
ENDBRANCH   5  25
TORSDOF 5
ENDMDL
MODEL 3
REMARK VINA RESULT:      -7.7      1.576      2.160
REMARK  5 active torsions:
REMARK  status: ('A' for Active; 'I' for Inactive)
REMARK    1  A    between atoms: C_3  and  C_24 
REMARK    2  A    between atoms: C_6  and  C_7 
REMARK       I    between atoms: C_7  and  N_9 
REMARK    3  A    between atoms: N_9  and  N_10 
REMARK    4  A    between atoms: C_14  and  C_22 
REMARK    5  A    between atoms: C_17  and  C_21 
ROOT
HETATM    1  N   UNK     0      -8.761   4.107  -9.568  1.00  0.00    -0.156 N 
HETATM    2  C   UNK     0      -9.920   4.385 -10.236  1.00  0.00     0.279 C 
HETATM    3  O   UNK     0     -10.887   3.700 -10.523  1.00  0.00    -0.265 OA
HETATM    4  C   UNK     0      -9.802   5.781 -10.674  1.00  0.00     0.041 C 
HETATM    5  C   UNK     0     -10.280   6.361 -11.824  1.00  0.00     0.049 C 
HETATM    6  C   UNK     0      -9.422   6.018 -12.863  1.00  0.00    -0.026 C 
HETATM    7  C   UNK     0      -8.111   6.445 -12.588  1.00  0.00    -0.026 C 
HETATM    8  C   UNK     0      -8.053   7.083 -11.356  1.00  0.00     0.049 C 
HETATM    9  C   UNK     0      -8.491   6.196 -10.404  1.00  0.00     0.041 C 
HETATM   10  C   UNK     0      -7.785   5.035  -9.838  1.00  0.00     0.279 C 
HETATM   11  O   UNK     0      -6.567   4.988  -9.829  1.00  0.00    -0.265 OA
ENDROOT
BRANCH   1  12
HETATM   12  N   UNK     0      -8.501   2.790  -9.035  1.00  0.00    -0.118 NA
HETATM   13  C   UNK     0      -8.427   2.755  -7.698  1.00  0.00     0.295 C 
HETATM   14  O   UNK     0      -8.571   3.677  -6.896  1.00  0.00    -0.264 OA
BRANCH  13  15
HETATM   15  C   UNK     0      -8.215   1.400  -7.127  1.00  0.00     0.059 A 
HETATM   16  C   UNK     0      -6.907   0.989  -6.880  1.00  0.00     0.005 A 
HETATM   17  C   UNK     0      -6.671  -0.197  -6.192  1.00  0.00     0.004 A 
HETATM   18  C   UNK     0      -7.731  -0.965  -5.691  1.00  0.00     0.071 A 
HETATM   19  C   UNK     0      -9.038  -0.582  -6.010  1.00  0.00     0.004 A 
HETATM   20  C   UNK     0      -9.282   0.600  -6.712  1.00  0.00     0.005 A 
BRANCH  18  21
HETATM   21  C   UNK     0      -7.452  -2.241  -4.876  1.00  0.00     0.419 C 
HETATM   22  F   UNK     0      -7.174  -3.517  -4.060  1.00  0.00    -0.166 F 
HETATM   23  F   UNK     0      -6.041  -2.188  -5.124  1.00  0.00    -0.166 F 
HETATM   24  F   UNK     0      -7.910  -3.119  -5.916  1.00  0.00    -0.166 F 
ENDBRANCH  18  21
ENDBRANCH  13  15
ENDBRANCH   1  12
BRANCH   5  25
HETATM   25  C   UNK     0     -10.255   7.719 -11.596  1.00  0.00     0.009 A 
HETATM   26  C   UNK     0     -11.389   8.345 -12.201  1.00  0.00     0.009 A 
HETATM   27  C   UNK     0     -11.073   8.592 -10.849  1.00  0.00     0.001 A 
ENDBRANCH   5  25
TORSDOF 5
ENDMDL
MODEL 4
REMARK VINA RESULT:      -7.6      4.976      9.029
REMARK  5 active torsions:
REMARK  status: ('A' for Active; 'I' for Inactive)
REMARK    1  A    between atoms: C_3  and  C_24 
REMARK    2  A    between atoms: C_6  and  C_7 
REMARK       I    between atoms: C_7  and  N_9 
REMARK    3  A    between atoms: N_9  and  N_10 
REMARK    4  A    between atoms: C_14  and  C_22 
REMARK    5  A    between atoms: C_17  and  C_21 
ROOT
HETATM    1  N   UNK     0      -7.706   2.141  -8.101  1.00  0.00    -0.156 N 
HETATM    2  C   UNK     0      -6.503   1.524  -8.301  1.00  0.00     0.279 C 
HETATM    3  O   UNK     0      -5.742   1.496  -9.254  1.00  0.00    -0.265 OA
HETATM    4  C   UNK     0      -6.248   0.745  -7.083  1.00  0.00     0.041 C 
HETATM    5  C   UNK     0      -5.617  -0.469  -6.960  1.00  0.00     0.049 C 
HETATM    6  C   UNK     0      -6.518  -1.458  -7.339  1.00  0.00    -0.026 C 
HETATM    7  C   UNK     0      -7.677  -1.407  -6.546  1.00  0.00    -0.026 C 
HETATM    8  C   UNK     0      -7.588  -0.381  -5.615  1.00  0.00     0.049 C 
HETATM    9  C   UNK     0      -7.410   0.795  -6.302  1.00  0.00     0.041 C 
HETATM   10  C   UNK     0      -8.403   1.570  -7.065  1.00  0.00     0.279 C 
HETATM   11  O   UNK     0      -9.591   1.489  -6.806  1.00  0.00    -0.265 OA
ENDROOT
BRANCH   1  12
HETATM   12  N   UNK     0      -8.306   2.961  -9.127  1.00  0.00    -0.118 NA
HETATM   13  C   UNK     0      -7.960   4.253  -9.057  1.00  0.00     0.295 C 
HETATM   14  O   UNK     0      -7.198   4.802  -8.262  1.00  0.00    -0.264 OA
BRANCH  13  15
HETATM   15  C   UNK     0      -8.524   5.103 -10.137  1.00  0.00     0.059 A 
HETATM   16  C   UNK     0      -9.908   5.248 -10.202  1.00  0.00     0.005 A 
HETATM   17  C   UNK     0     -10.468   6.164 -11.086  1.00  0.00     0.004 A 
HETATM   18  C   UNK     0      -9.660   6.990 -11.880  1.00  0.00     0.071 A 
HETATM   19  C   UNK     0      -8.277   6.782 -11.861  1.00  0.00     0.004 A 
HETATM   20  C   UNK     0      -7.708   5.855 -10.985  1.00  0.00     0.005 A 
BRANCH  18  21
HETATM   21  C   UNK     0     -10.293   8.044 -12.806  1.00  0.00     0.419 C 
HETATM   22  F   UNK     0     -10.927   9.099 -13.733  1.00  0.00    -0.166 F 
HETATM   23  F   UNK     0      -9.022   8.574 -13.206  1.00  0.00    -0.166 F 
HETATM   24  F   UNK     0     -10.656   8.914 -11.724  1.00  0.00    -0.166 F 
ENDBRANCH  18  21
ENDBRANCH  13  15
ENDBRANCH   1  12
BRANCH   5  25
HETATM   25  C   UNK     0      -5.293  -0.587  -5.627  1.00  0.00     0.009 A 
HETATM   26  C   UNK     0      -3.956  -1.074  -5.482  1.00  0.00     0.009 A 
HETATM   27  C   UNK     0      -4.375   0.081  -4.789  1.00  0.00     0.001 A 
ENDBRANCH   5  25
TORSDOF 5
ENDMDL
MODEL 5
REMARK VINA RESULT:      -7.5      5.853     10.014
REMARK  5 active torsions:
REMARK  status: ('A' for Active; 'I' for Inactive)
REMARK    1  A    between atoms: C_3  and  C_24 
REMARK    2  A    between atoms: C_6  and  C_7 
REMARK       I    between atoms: C_7  and  N_9 
REMARK    3  A    between atoms: N_9  and  N_10 
REMARK    4  A    between atoms: C_14  and  C_22 
REMARK    5  A    between atoms: C_17  and  C_21 
ROOT
HETATM    1  N   UNK     0     -10.690  -3.664  -7.181  1.00  0.00    -0.156 N 
HETATM    2  C   UNK     0     -10.442  -4.503  -8.230  1.00  0.00     0.279 C 
HETATM    3  O   UNK     0      -9.970  -4.316  -9.338  1.00  0.00    -0.265 OA
HETATM    4  C   UNK     0     -10.945  -5.819  -7.815  1.00  0.00     0.041 C 
HETATM    5  C   UNK     0     -11.528  -6.795  -8.585  1.00  0.00     0.049 C 
HETATM    6  C   UNK     0     -12.848  -6.422  -8.817  1.00  0.00    -0.026 C 
HETATM    7  C   UNK     0     -13.539  -6.255  -7.604  1.00  0.00    -0.026 C 
HETATM    8  C   UNK     0     -12.702  -6.506  -6.526  1.00  0.00     0.049 C 
HETATM    9  C   UNK     0     -11.638  -5.642  -6.610  1.00  0.00     0.041 C 
HETATM   10  C   UNK     0     -11.601  -4.202  -6.305  1.00  0.00     0.279 C 
HETATM   11  O   UNK     0     -12.396  -3.708  -5.524  1.00  0.00    -0.265 OA
ENDROOT
BRANCH   1  12
HETATM   12  N   UNK     0     -10.370  -2.258  -7.255  1.00  0.00    -0.118 NA
HETATM   13  C   UNK     0      -9.430  -1.870  -6.384  1.00  0.00     0.295 C 
HETATM   14  O   UNK     0      -8.810  -2.553  -5.569  1.00  0.00    -0.264 OA
BRANCH  13  15
HETATM   15  C   UNK     0      -9.048  -0.439  -6.483  1.00  0.00     0.059 A 
HETATM   16  C   UNK     0      -7.698  -0.129  -6.633  1.00  0.00     0.005 A 
HETATM   17  C   UNK     0      -7.312   1.181  -6.899  1.00  0.00     0.004 A 
HETATM   18  C   UNK     0      -8.265   2.194  -7.073  1.00  0.00     0.071 A 
HETATM   19  C   UNK     0      -9.611   1.887  -6.844  1.00  0.00     0.004 A 
HETATM   20  C   UNK     0     -10.004   0.576  -6.564  1.00  0.00     0.005 A 
BRANCH  18  21
HETATM   21  C   UNK     0      -7.826   3.626  -7.430  1.00  0.00     0.419 C 
HETATM   22  F   UNK     0      -7.387   5.058  -7.788  1.00  0.00    -0.166 F 
HETATM   23  F   UNK     0      -6.500   3.432  -6.921  1.00  0.00    -0.166 F 
HETATM   24  F   UNK     0      -8.499   4.213  -6.306  1.00  0.00    -0.166 F 
ENDBRANCH  18  21
ENDBRANCH  13  15
ENDBRANCH   1  12
BRANCH   5  25
HETATM   25  C   UNK     0     -11.469  -7.948  -7.835  1.00  0.00     0.009 A 
HETATM   26  C   UNK     0     -11.356  -9.090  -8.688  1.00  0.00     0.009 A 
HETATM   27  C   UNK     0     -10.461  -8.909  -7.613  1.00  0.00     0.001 A 
ENDBRANCH   5  25
TORSDOF 5
ENDMDL
MODEL 6
REMARK VINA RESULT:      -7.3      1.723      3.076
REMARK  5 active torsions:
REMARK  status: ('A' for Active; 'I' for Inactive)
REMARK    1  A    between atoms: C_3  and  C_24 
REMARK    2  A    between atoms: C_6  and  C_7 
REMARK       I    between atoms: C_7  and  N_9 
REMARK    3  A    between atoms: N_9  and  N_10 
REMARK    4  A    between atoms: C_14  and  C_22 
REMARK    5  A    between atoms: C_17  and  C_21 
ROOT
HETATM    1  N   UNK     0      -8.177   4.715 -10.770  1.00  0.00    -0.156 N 
HETATM    2  C   UNK     0      -8.485   4.359 -12.053  1.00  0.00     0.279 C 
HETATM    3  O   UNK     0      -8.400   3.302 -12.655  1.00  0.00    -0.265 OA
HETATM    4  C   UNK     0      -8.930   5.593 -12.713  1.00  0.00     0.041 C 
HETATM    5  C   UNK     0      -8.751   5.977 -14.019  1.00  0.00     0.049 C 
HETATM    6  C   UNK     0      -7.446   6.440 -14.152  1.00  0.00    -0.026 C 
HETATM    7  C   UNK     0      -7.204   7.509 -13.271  1.00  0.00    -0.026 C 
HETATM    8  C   UNK     0      -8.338   7.791 -12.522  1.00  0.00     0.049 C 
HETATM    9  C   UNK     0      -8.679   6.653 -11.832  1.00  0.00     0.041 C 
HETATM   10  C   UNK     0      -8.033   6.075 -10.642  1.00  0.00     0.279 C 
HETATM   11  O   UNK     0      -7.397   6.776  -9.874  1.00  0.00    -0.265 OA
ENDROOT
BRANCH   1  12
HETATM   12  N   UNK     0      -7.649   3.753  -9.832  1.00  0.00    -0.118 NA
HETATM   13  C   UNK     0      -8.583   3.184  -9.059  1.00  0.00     0.295 C 
HETATM   14  O   UNK     0      -9.801   3.362  -9.068  1.00  0.00    -0.264 OA
BRANCH  13  15
HETATM   15  C   UNK     0      -8.067   2.151  -8.125  1.00  0.00     0.059 A 
HETATM   16  C   UNK     0      -8.988   1.444  -7.355  1.00  0.00     0.005 A 
HETATM   17  C   UNK     0      -8.567   0.356  -6.596  1.00  0.00     0.004 A 
HETATM   18  C   UNK     0      -7.236  -0.079  -6.633  1.00  0.00     0.071 A 
HETATM   19  C   UNK     0      -6.307   0.683  -7.349  1.00  0.00     0.004 A 
HETATM   20  C   UNK     0      -6.719   1.784  -8.103  1.00  0.00     0.005 A 
BRANCH  18  21
HETATM   21  C   UNK     0      -6.799  -1.324  -5.838  1.00  0.00     0.419 C 
HETATM   22  F   UNK     0      -6.362  -2.568  -5.043  1.00  0.00    -0.166 F 
HETATM   23  F   UNK     0      -6.600  -0.580  -4.629  1.00  0.00    -0.166 F 
HETATM   24  F   UNK     0      -5.480  -1.339  -6.404  1.00  0.00    -0.166 F 
ENDBRANCH  18  21
ENDBRANCH  13  15
ENDBRANCH   1  12
BRANCH   5  25
HETATM   25  C   UNK     0      -9.655   6.993 -14.237  1.00  0.00     0.009 A 
HETATM   26  C   UNK     0     -10.142   6.946 -15.580  1.00  0.00     0.009 A 
HETATM   27  C   UNK     0     -11.042   7.018 -14.496  1.00  0.00     0.001 A 
ENDBRANCH   5  25
TORSDOF 5
ENDMDL
MODEL 7
REMARK VINA RESULT:      -7.3      5.945      9.047
REMARK  5 active torsions:
REMARK  status: ('A' for Active; 'I' for Inactive)
REMARK    1  A    between atoms: C_3  and  C_24 
REMARK    2  A    between atoms: C_6  and  C_7 
REMARK       I    between atoms: C_7  and  N_9 
REMARK    3  A    between atoms: N_9  and  N_10 
REMARK    4  A    between atoms: C_14  and  C_22 
REMARK    5  A    between atoms: C_17  and  C_21 
ROOT
HETATM    1  N   UNK     0     -10.861  -3.557  -7.429  1.00  0.00    -0.156 N 
HETATM    2  C   UNK     0     -11.980  -3.751  -6.670  1.00  0.00     0.279 C 
HETATM    3  O   UNK     0     -12.223  -3.535  -5.495  1.00  0.00    -0.265 OA
HETATM    4  C   UNK     0     -12.956  -4.397  -7.557  1.00  0.00     0.041 C 
HETATM    5  C   UNK     0     -13.905  -5.339  -7.244  1.00  0.00     0.049 C 
HETATM    6  C   UNK     0     -13.266  -6.570  -7.138  1.00  0.00    -0.026 C 
HETATM    7  C   UNK     0     -12.608  -6.894  -8.338  1.00  0.00    -0.026 C 
HETATM    8  C   UNK     0     -12.784  -5.889  -9.279  1.00  0.00     0.049 C 
HETATM    9  C   UNK     0     -12.290  -4.723  -8.746  1.00  0.00     0.041 C 
HETATM   10  C   UNK     0     -10.885  -4.318  -8.573  1.00  0.00     0.279 C 
HETATM   11  O   UNK     0     -10.010  -4.779  -9.284  1.00  0.00    -0.265 OA
ENDROOT
BRANCH   1  12
HETATM   12  N   UNK     0      -9.663  -2.983  -6.864  1.00  0.00    -0.118 NA
HETATM   13  C   UNK     0      -9.364  -1.770  -7.348  1.00  0.00     0.295 C 
HETATM   14  O   UNK     0      -9.983  -1.100  -8.174  1.00  0.00    -0.264 OA
BRANCH  13  15
HETATM   15  C   UNK     0      -8.166  -1.140  -6.738  1.00  0.00     0.059 A 
HETATM   16  C   UNK     0      -7.885  -1.420  -5.402  1.00  0.00     0.005 A 
HETATM   17  C   UNK     0      -6.686  -0.990  -4.841  1.00  0.00     0.004 A 
HETATM   18  C   UNK     0      -5.726  -0.322  -5.613  1.00  0.00     0.071 A 
HETATM   19  C   UNK     0      -6.051   0.020  -6.930  1.00  0.00     0.004 A 
HETATM   20  C   UNK     0      -7.257  -0.398  -7.496  1.00  0.00     0.005 A 
BRANCH  18  21
HETATM   21  C   UNK     0      -4.377   0.091  -4.994  1.00  0.00     0.419 C 
HETATM   22  F   UNK     0      -3.029   0.503  -4.375  1.00  0.00    -0.166 F 
HETATM   23  F   UNK     0      -3.795  -1.204  -5.199  1.00  0.00    -0.166 F 
HETATM   24  F   UNK     0      -4.860  -0.006  -3.645  1.00  0.00    -0.166 F 
ENDBRANCH  18  21
ENDBRANCH  13  15
ENDBRANCH   1  12
BRANCH   5  25
HETATM   25  C   UNK     0     -14.794  -5.338  -8.295  1.00  0.00     0.009 A 
HETATM   26  C   UNK     0     -16.109  -5.659  -7.835  1.00  0.00     0.009 A 
HETATM   27  C   UNK     0     -15.891  -4.519  -8.637  1.00  0.00     0.001 A 
ENDBRANCH   5  25
TORSDOF 5
ENDMDL
MODEL 8
REMARK VINA RESULT:      -7.2      2.204      3.065
REMARK  5 active torsions:
REMARK  status: ('A' for Active; 'I' for Inactive)
REMARK    1  A    between atoms: C_3  and  C_24 
REMARK    2  A    between atoms: C_6  and  C_7 
REMARK       I    between atoms: C_7  and  N_9 
REMARK    3  A    between atoms: N_9  and  N_10 
REMARK    4  A    between atoms: C_14  and  C_22 
REMARK    5  A    between atoms: C_17  and  C_21 
ROOT
HETATM    1  N   UNK     0      -9.313   5.146 -10.239  1.00  0.00    -0.156 N 
HETATM    2  C   UNK     0     -10.317   5.922 -10.746  1.00  0.00     0.279 C 
HETATM    3  O   UNK     0     -11.512   5.727 -10.893  1.00  0.00    -0.265 OA
HETATM    4  C   UNK     0      -9.672   7.156 -11.209  1.00  0.00     0.041 C 
HETATM    5  C   UNK     0      -9.999   7.941 -12.288  1.00  0.00     0.049 C 
HETATM    6  C   UNK     0      -9.508   7.319 -13.431  1.00  0.00    -0.026 C 
HETATM    7  C   UNK     0      -8.117   7.137 -13.340  1.00  0.00    -0.026 C 
HETATM    8  C   UNK     0      -7.637   7.627 -12.134  1.00  0.00     0.049 C 
HETATM    9  C   UNK     0      -8.287   6.964 -11.122  1.00  0.00     0.041 C 
HETATM   10  C   UNK     0      -8.077   5.586 -10.648  1.00  0.00     0.279 C 
HETATM   11  O   UNK     0      -7.005   5.027 -10.804  1.00  0.00    -0.265 OA
ENDROOT
BRANCH   1  12
HETATM   12  N   UNK     0      -9.574   3.819  -9.734  1.00  0.00    -0.118 NA
HETATM   13  C   UNK     0      -9.123   3.616  -8.489  1.00  0.00     0.295 C 
HETATM   14  O   UNK     0      -8.550   4.409  -7.742  1.00  0.00    -0.264 OA
BRANCH  13  15
HETATM   15  C   UNK     0      -9.431   2.275  -7.931  1.00  0.00     0.059 A 
HETATM   16  C   UNK     0     -10.472   1.548  -8.506  1.00  0.00     0.005 A 
HETATM   17  C   UNK     0     -10.684   0.226  -8.129  1.00  0.00     0.004 A 
HETATM   18  C   UNK     0      -9.832  -0.412  -7.217  1.00  0.00     0.071 A 
HETATM   19  C   UNK     0      -8.839   0.349  -6.591  1.00  0.00     0.004 A 
HETATM   20  C   UNK     0      -8.628   1.681  -6.955  1.00  0.00     0.005 A 
BRANCH  18  21
HETATM   21  C   UNK     0     -10.042  -1.895  -6.859  1.00  0.00     0.419 C 
HETATM   22  F   UNK     0     -10.251  -3.378  -6.502  1.00  0.00    -0.166 F 
HETATM   23  F   UNK     0     -11.347  -1.662  -6.314  1.00  0.00    -0.166 F 
HETATM   24  F   UNK     0      -9.210  -1.828  -5.691  1.00  0.00    -0.166 F 
ENDBRANCH  18  21
ENDBRANCH  13  15
ENDBRANCH   1  12
BRANCH   5  25
HETATM   25  C   UNK     0      -9.369   9.147 -12.077  1.00  0.00     0.009 A 
HETATM   26  C   UNK     0     -10.126  10.212 -12.657  1.00  0.00     0.009 A 
HETATM   27  C   UNK     0      -9.692  10.291 -11.317  1.00  0.00     0.001 A 
ENDBRANCH   5  25
TORSDOF 5
ENDMDL
MODEL 9
REMARK VINA RESULT:      -7.1      6.503      9.537
REMARK  5 active torsions:
REMARK  status: ('A' for Active; 'I' for Inactive)
REMARK    1  A    between atoms: C_3  and  C_24 
REMARK    2  A    between atoms: C_6  and  C_7 
REMARK       I    between atoms: C_7  and  N_9 
REMARK    3  A    between atoms: N_9  and  N_10 
REMARK    4  A    between atoms: C_14  and  C_22 
REMARK    5  A    between atoms: C_17  and  C_21 
ROOT
HETATM    1  N   UNK     0     -11.030  -4.774  -7.068  1.00  0.00    -0.156 N 
HETATM    2  C   UNK     0     -11.255  -4.952  -8.404  1.00  0.00     0.279 C 
HETATM    3  O   UNK     0     -10.628  -4.617  -9.395  1.00  0.00    -0.265 OA
HETATM    4  C   UNK     0     -12.552  -5.631  -8.502  1.00  0.00     0.041 C 
HETATM    5  C   UNK     0     -13.520  -5.495  -9.468  1.00  0.00     0.049 C 
HETATM    6  C   UNK     0     -14.215  -4.318  -9.210  1.00  0.00    -0.026 C 
HETATM    7  C   UNK     0     -14.784  -4.346  -7.925  1.00  0.00    -0.026 C 
HETATM    8  C   UNK     0     -14.483  -5.539  -7.283  1.00  0.00     0.049 C 
HETATM    9  C   UNK     0     -13.115  -5.648  -7.219  1.00  0.00     0.041 C 
HETATM   10  C   UNK     0     -12.180  -4.934  -6.334  1.00  0.00     0.279 C 
HETATM   11  O   UNK     0     -12.550  -4.493  -5.260  1.00  0.00    -0.265 OA
ENDROOT
BRANCH   1  12
HETATM   12  N   UNK     0      -9.855  -4.082  -6.592  1.00  0.00    -0.118 NA
HETATM   13  C   UNK     0      -9.935  -2.749  -6.695  1.00  0.00     0.295 C 
HETATM   14  O   UNK     0     -10.869  -2.065  -7.113  1.00  0.00    -0.264 OA
BRANCH  13  15
HETATM   15  C   UNK     0      -8.759  -2.016  -6.160  1.00  0.00     0.059 A 
HETATM   16  C   UNK     0      -7.851  -2.720  -5.372  1.00  0.00     0.005 A 
HETATM   17  C   UNK     0      -6.654  -2.122  -4.992  1.00  0.00     0.004 A 
HETATM   18  C   UNK     0      -6.316  -0.835  -5.434  1.00  0.00     0.071 A 
HETATM   19  C   UNK     0      -7.267  -0.111  -6.160  1.00  0.00     0.004 A 
HETATM   20  C   UNK     0      -8.477  -0.701  -6.535  1.00  0.00     0.005 A 
BRANCH  18  21
HETATM   21  C   UNK     0      -4.959  -0.212  -5.058  1.00  0.00     0.419 C 
HETATM   22  F   UNK     0      -3.602   0.412  -4.682  1.00  0.00    -0.166 F 
HETATM   23  F   UNK     0      -4.941   0.641  -6.211  1.00  0.00    -0.166 F 
HETATM   24  F   UNK     0      -4.206  -1.347  -5.510  1.00  0.00    -0.166 F 
ENDBRANCH  18  21
ENDBRANCH  13  15
ENDBRANCH   1  12
BRANCH   5  25
HETATM   25  C   UNK     0     -14.343  -6.590  -9.330  1.00  0.00     0.009 A 
HETATM   26  C   UNK     0     -14.871  -6.977 -10.600  1.00  0.00     0.009 A 
HETATM   27  C   UNK     0     -14.255  -7.930  -9.762  1.00  0.00     0.001 A 
ENDBRANCH   5  25
TORSDOF 5
ENDMDL
MODEL 10
REMARK VINA RESULT:      -6.9      5.857      9.573
REMARK  5 active torsions:
REMARK  status: ('A' for Active; 'I' for Inactive)
REMARK    1  A    between atoms: C_3  and  C_24 
REMARK    2  A    between atoms: C_6  and  C_7 
REMARK       I    between atoms: C_7  and  N_9 
REMARK    3  A    between atoms: N_9  and  N_10 
REMARK    4  A    between atoms: C_14  and  C_22 
REMARK    5  A    between atoms: C_17  and  C_21 
ROOT
HETATM    1  N   UNK     0     -11.359  -2.931  -7.676  1.00  0.00    -0.156 N 
HETATM    2  C   UNK     0     -11.796  -3.456  -8.860  1.00  0.00     0.279 C 
HETATM    3  O   UNK     0     -11.888  -2.988  -9.982  1.00  0.00    -0.265 OA
HETATM    4  C   UNK     0     -12.262  -4.812  -8.546  1.00  0.00     0.041 C 
HETATM    5  C   UNK     0     -13.305  -5.510  -9.106  1.00  0.00     0.049 C 
HETATM    6  C   UNK     0     -14.485  -5.033  -8.546  1.00  0.00    -0.026 C 
HETATM    7  C   UNK     0     -14.469  -5.181  -7.148  1.00  0.00    -0.026 C 
HETATM    8  C   UNK     0     -13.278  -5.756  -6.731  1.00  0.00     0.049 C 
HETATM    9  C   UNK     0     -12.250  -4.948  -7.152  1.00  0.00     0.041 C 
HETATM   10  C   UNK     0     -11.819  -3.653  -6.601  1.00  0.00     0.279 C 
HETATM   11  O   UNK     0     -12.042  -3.363  -5.438  1.00  0.00    -0.265 OA
ENDROOT
BRANCH   1  12
HETATM   12  N   UNK     0     -10.873  -1.574  -7.592  1.00  0.00    -0.118 NA
HETATM   13  C   UNK     0      -9.537  -1.477  -7.622  1.00  0.00     0.295 C 
HETATM   14  O   UNK     0      -8.704  -2.376  -7.732  1.00  0.00    -0.264 OA
BRANCH  13  15
HETATM   15  C   UNK     0      -9.019  -0.086  -7.593  1.00  0.00     0.059 A 
HETATM   16  C   UNK     0      -9.936   0.959  -7.683  1.00  0.00     0.005 A 
HETATM   17  C   UNK     0      -9.515   2.271  -7.489  1.00  0.00     0.004 A 
HETATM   18  C   UNK     0      -8.186   2.560  -7.151  1.00  0.00     0.071 A 
HETATM   19  C   UNK     0      -7.260   1.513  -7.139  1.00  0.00     0.004 A 
HETATM   20  C   UNK     0      -7.673   0.195  -7.345  1.00  0.00     0.005 A 
BRANCH  18  21
HETATM   21  C   UNK     0      -7.749   4.011  -6.878  1.00  0.00     0.419 C 
HETATM   22  F   UNK     0      -7.313   5.463  -6.604  1.00  0.00    -0.166 F 
HETATM   23  F   UNK     0      -8.870   4.272  -6.022  1.00  0.00    -0.166 F 
HETATM   24  F   UNK     0      -8.219   4.492  -8.146  1.00  0.00    -0.166 F 
ENDBRANCH  18  21
ENDBRANCH  13  15
ENDBRANCH   1  12
BRANCH   5  25
HETATM   25  C   UNK     0     -13.098  -6.828  -8.764  1.00  0.00     0.009 A 
HETATM   26  C   UNK     0     -13.535  -7.689  -9.818  1.00  0.00     0.009 A 
HETATM   27  C   UNK     0     -12.247  -7.837  -9.261  1.00  0.00     0.001 A 
ENDBRANCH   5  25
TORSDOF 5
ENDMDL
MODEL 11
REMARK VINA RESULT:      -6.9      5.724      9.941
REMARK  5 active torsions:
REMARK  status: ('A' for Active; 'I' for Inactive)
REMARK    1  A    between atoms: C_3  and  C_24 
REMARK    2  A    between atoms: C_6  and  C_7 
REMARK       I    between atoms: C_7  and  N_9 
REMARK    3  A    between atoms: N_9  and  N_10 
REMARK    4  A    between atoms: C_14  and  C_22 
REMARK    5  A    between atoms: C_17  and  C_21 
ROOT
HETATM    1  N   UNK     0      -9.942  -3.851  -7.116  1.00  0.00    -0.156 N 
HETATM    2  C   UNK     0      -9.627  -4.748  -8.097  1.00  0.00     0.279 C 
HETATM    3  O   UNK     0      -8.870  -4.690  -9.051  1.00  0.00    -0.265 OA
HETATM    4  C   UNK     0     -10.478  -5.919  -7.854  1.00  0.00     0.041 C 
HETATM    5  C   UNK     0     -11.047  -6.770  -8.771  1.00  0.00     0.049 C 
HETATM    6  C   UNK     0     -12.163  -6.135  -9.305  1.00  0.00    -0.026 C 
HETATM    7  C   UNK     0     -13.078  -5.798  -8.292  1.00  0.00    -0.026 C 
HETATM    8  C   UNK     0     -12.600  -6.193  -7.051  1.00  0.00     0.049 C 
HETATM    9  C   UNK     0     -11.391  -5.573  -6.849  1.00  0.00     0.041 C 
HETATM   10  C   UNK     0     -11.131  -4.165  -6.504  1.00  0.00     0.279 C 
HETATM   11  O   UNK     0     -11.972  -3.498  -5.926  1.00  0.00    -0.265 OA
ENDROOT
BRANCH   1  12
HETATM   12  N   UNK     0      -9.329  -2.544  -7.071  1.00  0.00    -0.118 NA
HETATM   13  C   UNK     0      -9.897  -1.652  -7.892  1.00  0.00     0.295 C 
HETATM   14  O   UNK     0     -10.864  -1.803  -8.639  1.00  0.00    -0.264 OA
BRANCH  13  15
HETATM   15  C   UNK     0      -9.317  -0.287  -7.820  1.00  0.00     0.059 A 
HETATM   16  C   UNK     0     -10.185   0.800  -7.895  1.00  0.00     0.005 A 
HETATM   17  C   UNK     0      -9.707   2.086  -7.662  1.00  0.00     0.004 A 
HETATM   18  C   UNK     0      -8.372   2.306  -7.298  1.00  0.00     0.071 A 
HETATM   19  C   UNK     0      -7.494   1.217  -7.300  1.00  0.00     0.004 A 
HETATM   20  C   UNK     0      -7.964  -0.075  -7.545  1.00  0.00     0.005 A 
BRANCH  18  21
HETATM   21  C   UNK     0      -7.874   3.728  -6.981  1.00  0.00     0.419 C 
HETATM   22  F   UNK     0      -7.376   5.151  -6.664  1.00  0.00    -0.166 F 
HETATM   23  F   UNK     0      -8.942   3.984  -6.059  1.00  0.00    -0.166 F 
HETATM   24  F   UNK     0      -8.389   4.283  -8.201  1.00  0.00    -0.166 F 
ENDBRANCH  18  21
ENDBRANCH  13  15
ENDBRANCH   1  12
BRANCH   5  25
HETATM   25  C   UNK     0     -11.413  -7.892  -8.062  1.00  0.00     0.009 A 
HETATM   26  C   UNK     0     -11.243  -9.063  -8.863  1.00  0.00     0.009 A 
HETATM   27  C   UNK     0     -10.698  -9.001  -7.563  1.00  0.00     0.001 A 
ENDBRANCH   5  25
TORSDOF 5
ENDMDL
MODEL 12
REMARK VINA RESULT:      -6.8      4.809      8.962
REMARK  5 active torsions:
REMARK  status: ('A' for Active; 'I' for Inactive)
REMARK    1  A    between atoms: C_3  and  C_24 
REMARK    2  A    between atoms: C_6  and  C_7 
REMARK       I    between atoms: C_7  and  N_9 
REMARK    3  A    between atoms: N_9  and  N_10 
REMARK    4  A    between atoms: C_14  and  C_22 
REMARK    5  A    between atoms: C_17  and  C_21 
ROOT
HETATM    1  N   UNK     0      -8.801   2.078  -7.498  1.00  0.00    -0.156 N 
HETATM    2  C   UNK     0      -7.715   1.250  -7.482  1.00  0.00     0.279 C 
HETATM    3  O   UNK     0      -6.602   1.345  -7.970  1.00  0.00    -0.265 OA
HETATM    4  C   UNK     0      -8.142   0.046  -6.758  1.00  0.00     0.041 C 
HETATM    5  C   UNK     0      -7.769  -1.259  -6.970  1.00  0.00     0.049 C 
HETATM    6  C   UNK     0      -8.478  -1.731  -8.069  1.00  0.00    -0.026 C 
HETATM    7  C   UNK     0      -9.863  -1.631  -7.849  1.00  0.00    -0.026 C 
HETATM    8  C   UNK     0     -10.121  -1.085  -6.599  1.00  0.00     0.049 C 
HETATM    9  C   UNK     0      -9.524   0.151  -6.549  1.00  0.00     0.041 C 
HETATM   10  C   UNK     0      -9.958   1.404  -7.189  1.00  0.00     0.279 C 
HETATM   11  O   UNK     0     -11.129   1.589  -7.470  1.00  0.00    -0.265 OA
ENDROOT
BRANCH   1  12
HETATM   12  N   UNK     0      -8.763   3.351  -8.179  1.00  0.00    -0.118 NA
HETATM   13  C   UNK     0      -8.988   3.265  -9.497  1.00  0.00     0.295 C 
HETATM   14  O   UNK     0      -9.238   2.264 -10.170  1.00  0.00    -0.264 OA
BRANCH  13  15
HETATM   15  C   UNK     0      -9.007   4.568 -10.207  1.00  0.00     0.059 A 
HETATM   16  C   UNK     0     -10.233   5.212 -10.363  1.00  0.00     0.005 A 
HETATM   17  C   UNK     0     -10.277   6.508 -10.868  1.00  0.00     0.004 A 
HETATM   18  C   UNK     0      -9.100   7.203 -11.176  1.00  0.00     0.071 A 
HETATM   19  C   UNK     0      -7.882   6.521 -11.087  1.00  0.00     0.004 A 
HETATM   20  C   UNK     0      -7.832   5.216 -10.593  1.00  0.00     0.005 A 
BRANCH  18  21
HETATM   21  C   UNK     0      -9.161   8.659 -11.673  1.00  0.00     0.419 C 
HETATM   22  F   UNK     0      -9.222  10.115 -12.171  1.00  0.00    -0.166 F 
HETATM   23  F   UNK     0      -9.640   9.154 -10.415  1.00  0.00    -0.166 F 
HETATM   24  F   UNK     0     -10.381   8.458 -12.403  1.00  0.00    -0.166 F 
ENDBRANCH  18  21
ENDBRANCH  13  15
ENDBRANCH   1  12
BRANCH   5  25
HETATM   25  C   UNK     0      -8.124  -1.939  -5.827  1.00  0.00     0.009 A 
HETATM   26  C   UNK     0      -7.161  -2.953  -5.533  1.00  0.00     0.009 A 
HETATM   27  C   UNK     0      -7.558  -2.034  -4.539  1.00  0.00     0.001 A 
ENDBRANCH   5  25
TORSDOF 5
ENDMDL
MODEL 13
REMARK VINA RESULT:      -6.8      3.221      4.691
REMARK  5 active torsions:
REMARK  status: ('A' for Active; 'I' for Inactive)
REMARK    1  A    between atoms: C_3  and  C_24 
REMARK    2  A    between atoms: C_6  and  C_7 
REMARK       I    between atoms: C_7  and  N_9 
REMARK    3  A    between atoms: N_9  and  N_10 
REMARK    4  A    between atoms: C_14  and  C_22 
REMARK    5  A    between atoms: C_17  and  C_21 
ROOT
HETATM    1  N   UNK     0      -8.643   0.916  -8.696  1.00  0.00    -0.156 N 
HETATM    2  C   UNK     0      -8.741   1.481  -9.936  1.00  0.00     0.279 C 
HETATM    3  O   UNK     0      -8.774   1.003 -11.057  1.00  0.00    -0.265 OA
HETATM    4  C   UNK     0      -8.736   2.932  -9.713  1.00  0.00     0.041 C 
HETATM    5  C   UNK     0      -8.196   3.918 -10.503  1.00  0.00     0.049 C 
HETATM    6  C   UNK     0      -6.822   3.933 -10.285  1.00  0.00    -0.026 C 
HETATM    7  C   UNK     0      -6.536   4.159  -8.927  1.00  0.00    -0.026 C 
HETATM    8  C   UNK     0      -7.708   4.297  -8.197  1.00  0.00     0.049 C 
HETATM    9  C   UNK     0      -8.443   3.148  -8.360  1.00  0.00     0.041 C 
HETATM   10  C   UNK     0      -8.220   1.825  -7.756  1.00  0.00     0.279 C 
HETATM   11  O   UNK     0      -7.619   1.712  -6.701  1.00  0.00    -0.265 OA
ENDROOT
BRANCH   1  12
HETATM   12  N   UNK     0      -8.566  -0.516  -8.530  1.00  0.00    -0.118 NA
HETATM   13  C   UNK     0      -9.704  -1.071  -8.091  1.00  0.00     0.295 C 
HETATM   14  O   UNK     0     -10.778  -0.525  -7.842  1.00  0.00    -0.264 OA
BRANCH  13  15
HETATM   15  C   UNK     0      -9.662  -2.550  -7.967  1.00  0.00     0.059 A 
HETATM   16  C   UNK     0     -10.872  -3.241  -7.942  1.00  0.00     0.005 A 
HETATM   17  C   UNK     0     -10.879  -4.631  -7.998  1.00  0.00     0.004 A 
HETATM   18  C   UNK     0      -9.686  -5.354  -8.133  1.00  0.00     0.071 A 
HETATM   19  C   UNK     0      -8.475  -4.656  -8.080  1.00  0.00     0.004 A 
HETATM   20  C   UNK     0      -8.461  -3.261  -8.011  1.00  0.00     0.005 A 
BRANCH  18  21
HETATM   21  C   UNK     0      -9.714  -6.889  -8.258  1.00  0.00     0.419 C 
HETATM   22  F   UNK     0      -9.741  -8.423  -8.383  1.00  0.00    -0.166 F 
HETATM   23  F   UNK     0      -8.418  -6.942  -8.871  1.00  0.00    -0.166 F 
HETATM   24  F   UNK     0     -10.587  -6.874  -9.398  1.00  0.00    -0.166 F 
ENDBRANCH  18  21
ENDBRANCH  13  15
ENDBRANCH   1  12
BRANCH   5  25
HETATM   25  C   UNK     0      -8.772   5.094 -10.079  1.00  0.00     0.009 A 
HETATM   26  C   UNK     0      -8.886   6.013 -11.169  1.00  0.00     0.009 A 
HETATM   27  C   UNK     0     -10.003   5.727 -10.356  1.00  0.00     0.001 A 
ENDBRANCH   5  25
TORSDOF 5
ENDMDL
MODEL 14
REMARK VINA RESULT:      -6.7      2.078      2.975
REMARK  5 active torsions:
REMARK  status: ('A' for Active; 'I' for Inactive)
REMARK    1  A    between atoms: C_3  and  C_24 
REMARK    2  A    between atoms: C_6  and  C_7 
REMARK       I    between atoms: C_7  and  N_9 
REMARK    3  A    between atoms: N_9  and  N_10 
REMARK    4  A    between atoms: C_14  and  C_22 
REMARK    5  A    between atoms: C_17  and  C_21 
ROOT
HETATM    1  N   UNK     0      -9.153   2.868  -9.803  1.00  0.00    -0.156 N 
HETATM    2  C   UNK     0     -10.263   3.318 -10.461  1.00  0.00     0.279 C 
HETATM    3  O   UNK     0     -11.209   2.740 -10.969  1.00  0.00    -0.265 OA
HETATM    4  C   UNK     0     -10.115   4.777 -10.541  1.00  0.00     0.041 C 
HETATM    5  C   UNK     0     -10.512   5.624 -11.546  1.00  0.00     0.049 C 
HETATM    6  C   UNK     0      -9.584   5.526 -12.577  1.00  0.00    -0.026 C 
HETATM    7  C   UNK     0      -8.295   5.853 -12.120  1.00  0.00    -0.026 C 
HETATM    8  C   UNK     0      -8.322   6.174 -10.770  1.00  0.00     0.049 C 
HETATM    9  C   UNK     0      -8.826   5.093 -10.091  1.00  0.00     0.041 C 
HETATM   10  C   UNK     0      -8.160   3.818  -9.775  1.00  0.00     0.279 C 
HETATM   11  O   UNK     0      -6.946   3.749  -9.697  1.00  0.00    -0.265 OA
ENDROOT
BRANCH   1  12
HETATM   12  N   UNK     0      -8.932   1.458  -9.586  1.00  0.00    -0.118 NA
HETATM   13  C   UNK     0      -9.051   1.083  -8.306  1.00  0.00     0.295 C 
HETATM   14  O   UNK     0      -9.340   1.772  -7.328  1.00  0.00    -0.264 OA
BRANCH  13  15
HETATM   15  C   UNK     0      -8.882  -0.373  -8.070  1.00  0.00     0.059 A 
HETATM   16  C   UNK     0      -9.744  -1.249  -8.727  1.00  0.00     0.005 A 
HETATM   17  C   UNK     0      -9.515  -2.620  -8.670  1.00  0.00     0.004 A 
HETATM   18  C   UNK     0      -8.397  -3.139  -8.003  1.00  0.00     0.071 A 
HETATM   19  C   UNK     0      -7.583  -2.257  -7.284  1.00  0.00     0.004 A 
HETATM   20  C   UNK     0      -7.814  -0.880  -7.327  1.00  0.00     0.005 A 
BRANCH  18  21
HETATM   21  C   UNK     0      -8.122  -4.654  -8.003  1.00  0.00     0.419 C 
HETATM   22  F   UNK     0      -7.847  -6.169  -8.002  1.00  0.00    -0.166 F 
HETATM   23  F   UNK     0      -8.392  -4.785  -9.405  1.00  0.00    -0.166 F 
HETATM   24  F   UNK     0      -9.392  -4.980  -7.419  1.00  0.00    -0.166 F 
ENDBRANCH  18  21
ENDBRANCH  13  15
ENDBRANCH   1  12
BRANCH   5  25
HETATM   25  C   UNK     0     -10.502   6.886 -10.997  1.00  0.00     0.009 A 
HETATM   26  C   UNK     0     -11.414   7.739 -11.693  1.00  0.00     0.009 A 
HETATM   27  C   UNK     0     -11.459   7.643 -10.287  1.00  0.00     0.001 A 
ENDBRANCH   5  25
TORSDOF 5
ENDMDL
MODEL 15
REMARK VINA RESULT:      -6.6      4.742      9.090
REMARK  5 active torsions:
REMARK  status: ('A' for Active; 'I' for Inactive)
REMARK    1  A    between atoms: C_3  and  C_24 
REMARK    2  A    between atoms: C_6  and  C_7 
REMARK       I    between atoms: C_7  and  N_9 
REMARK    3  A    between atoms: N_9  and  N_10 
REMARK    4  A    between atoms: C_14  and  C_22 
REMARK    5  A    between atoms: C_17  and  C_21 
ROOT
HETATM    1  N   UNK     0      -8.561   0.312  -9.147  1.00  0.00    -0.156 N 
HETATM    2  C   UNK     0      -9.313  -0.781  -9.474  1.00  0.00     0.279 C 
HETATM    3  O   UNK     0     -10.220  -0.946 -10.272  1.00  0.00    -0.265 OA
HETATM    4  C   UNK     0      -8.870  -1.853  -8.573  1.00  0.00     0.041 C 
HETATM    5  C   UNK     0      -9.612  -2.865  -8.016  1.00  0.00     0.049 C 
HETATM    6  C   UNK     0     -10.323  -2.332  -6.946  1.00  0.00    -0.026 C 
HETATM    7  C   UNK     0      -9.451  -1.766  -6.000  1.00  0.00    -0.026 C 
HETATM    8  C   UNK     0      -8.132  -1.898  -6.411  1.00  0.00     0.049 C 
HETATM    9  C   UNK     0      -8.007  -1.278  -7.630  1.00  0.00     0.041 C 
HETATM   10  C   UNK     0      -7.955   0.164  -7.923  1.00  0.00     0.279 C 
HETATM   11  O   UNK     0      -7.574   0.959  -7.082  1.00  0.00    -0.265 OA
ENDROOT
BRANCH   1  12
HETATM   12  N   UNK     0      -8.764   1.583  -9.802  1.00  0.00    -0.118 NA
HETATM   13  C   UNK     0      -9.855   2.238  -9.384  1.00  0.00     0.295 C 
HETATM   14  O   UNK     0     -10.666   1.906  -8.519  1.00  0.00    -0.264 OA
BRANCH  13  15
HETATM   15  C   UNK     0     -10.050   3.572 -10.005  1.00  0.00     0.059 A 
HETATM   16  C   UNK     0     -11.291   3.856 -10.572  1.00  0.00     0.005 A 
HETATM   17  C   UNK     0     -11.574   5.146 -11.012  1.00  0.00     0.004 A 
HETATM   18  C   UNK     0     -10.648   6.185 -10.846  1.00  0.00     0.071 A 
HETATM   19  C   UNK     0      -9.380   5.872 -10.346  1.00  0.00     0.004 A 
HETATM   20  C   UNK     0      -9.085   4.577  -9.914  1.00  0.00     0.005 A 
BRANCH  18  21
HETATM   21  C   UNK     0     -11.001   7.620 -11.279  1.00  0.00     0.419 C 
HETATM   22  F   UNK     0     -11.353   9.055 -11.713  1.00  0.00    -0.166 F 
HETATM   23  F   UNK     0      -9.680   8.111 -11.012  1.00  0.00    -0.166 F 
HETATM   24  F   UNK     0     -11.688   7.922 -10.056  1.00  0.00    -0.166 F 
ENDBRANCH  18  21
ENDBRANCH  13  15
ENDBRANCH   1  12
BRANCH   5  25
HETATM   25  C   UNK     0      -8.701  -3.801  -7.581  1.00  0.00     0.009 A 
HETATM   26  C   UNK     0      -9.160  -5.121  -7.885  1.00  0.00     0.009 A 
HETATM   27  C   UNK     0      -7.858  -4.716  -8.247  1.00  0.00     0.001 A 
ENDBRANCH   5  25
TORSDOF 5
ENDMDL
MODEL 16
REMARK VINA RESULT:      -6.6      5.279      9.252
REMARK  5 active torsions:
REMARK  status: ('A' for Active; 'I' for Inactive)
REMARK    1  A    between atoms: C_3  and  C_24 
REMARK    2  A    between atoms: C_6  and  C_7 
REMARK       I    between atoms: C_7  and  N_9 
REMARK    3  A    between atoms: N_9  and  N_10 
REMARK    4  A    between atoms: C_14  and  C_22 
REMARK    5  A    between atoms: C_17  and  C_21 
ROOT
HETATM    1  N   UNK     0     -10.476  -2.844  -8.507  1.00  0.00    -0.156 N 
HETATM    2  C   UNK     0     -10.592  -3.868  -7.610  1.00  0.00     0.279 C 
HETATM    3  O   UNK     0     -10.480  -3.914  -6.397  1.00  0.00    -0.265 OA
HETATM    4  C   UNK     0     -10.837  -5.074  -8.411  1.00  0.00     0.041 C 
HETATM    5  C   UNK     0     -10.419  -6.360  -8.172  1.00  0.00     0.049 C 
HETATM    6  C   UNK     0      -9.081  -6.449  -8.543  1.00  0.00    -0.026 C 
HETATM    7  C   UNK     0      -8.916  -6.107  -9.897  1.00  0.00    -0.026 C 
HETATM    8  C   UNK     0     -10.135  -5.774 -10.469  1.00  0.00     0.049 C 
HETATM    9  C   UNK     0     -10.663  -4.725  -9.757  1.00  0.00     0.041 C 
HETATM   10  C   UNK     0     -10.263  -3.309  -9.782  1.00  0.00     0.279 C 
HETATM   11  O   UNK     0      -9.715  -2.831 -10.761  1.00  0.00    -0.265 OA
ENDROOT
BRANCH   1  12
HETATM   12  N   UNK     0     -10.176  -1.500  -8.074  1.00  0.00    -0.118 NA
HETATM   13  C   UNK     0      -8.895  -1.316  -7.730  1.00  0.00     0.295 C 
HETATM   14  O   UNK     0      -7.968  -2.125  -7.759  1.00  0.00    -0.264 OA
BRANCH  13  15
HETATM   15  C   UNK     0      -8.555   0.074  -7.334  1.00  0.00     0.059 A 
HETATM   16  C   UNK     0      -7.243   0.507  -7.522  1.00  0.00     0.005 A 
HETATM   17  C   UNK     0      -6.920   1.846  -7.326  1.00  0.00     0.004 A 
HETATM   18  C   UNK     0      -7.905   2.786  -6.993  1.00  0.00     0.071 A 
HETATM   19  C   UNK     0      -9.201   2.327  -6.734  1.00  0.00     0.004 A 
HETATM   20  C   UNK     0      -9.530   0.982  -6.916  1.00  0.00     0.005 A 
BRANCH  18  21
HETATM   21  C   UNK     0      -7.544   4.275  -6.843  1.00  0.00     0.419 C 
HETATM   22  F   UNK     0      -7.183   5.765  -6.692  1.00  0.00    -0.166 F 
HETATM   23  F   UNK     0      -8.736   4.573  -6.104  1.00  0.00    -0.166 F 
HETATM   24  F   UNK     0      -7.932   4.602  -8.186  1.00  0.00    -0.166 F 
ENDBRANCH  18  21
ENDBRANCH  13  15
ENDBRANCH   1  12
BRANCH   5  25
HETATM   25  C   UNK     0     -11.203  -7.162  -8.970  1.00  0.00     0.009 A 
HETATM   26  C   UNK     0     -11.472  -8.404  -8.315  1.00  0.00     0.009 A 
HETATM   27  C   UNK     0     -12.526  -7.642  -8.862  1.00  0.00     0.001 A 
ENDBRANCH   5  25
TORSDOF 5
ENDMDL
MODEL 17
REMARK VINA RESULT:      -6.6      1.910      3.055
REMARK  5 active torsions:
REMARK  status: ('A' for Active; 'I' for Inactive)
REMARK    1  A    between atoms: C_3  and  C_24 
REMARK    2  A    between atoms: C_6  and  C_7 
REMARK       I    between atoms: C_7  and  N_9 
REMARK    3  A    between atoms: N_9  and  N_10 
REMARK    4  A    between atoms: C_14  and  C_22 
REMARK    5  A    between atoms: C_17  and  C_21 
ROOT
HETATM    1  N   UNK     0      -8.817   4.326 -10.873  1.00  0.00    -0.156 N 
HETATM    2  C   UNK     0      -9.543   4.611 -11.995  1.00  0.00     0.279 C 
HETATM    3  O   UNK     0     -10.055   3.901 -12.845  1.00  0.00    -0.265 OA
HETATM    4  C   UNK     0      -9.572   6.075 -12.090  1.00  0.00     0.041 C 
HETATM    5  C   UNK     0      -9.566   6.861 -13.217  1.00  0.00     0.049 C 
HETATM    6  C   UNK     0      -8.261   6.909 -13.695  1.00  0.00    -0.026 C 
HETATM    7  C   UNK     0      -7.390   7.421 -12.717  1.00  0.00    -0.026 C 
HETATM    8  C   UNK     0      -8.085   7.725 -11.555  1.00  0.00     0.049 C 
HETATM    9  C   UNK     0      -8.697   6.576 -11.117  1.00  0.00     0.041 C 
HETATM   10  C   UNK     0      -8.090   5.413 -10.451  1.00  0.00     0.279 C 
HETATM   11  O   UNK     0      -7.055   5.525  -9.817  1.00  0.00    -0.265 OA
ENDROOT
BRANCH   1  12
HETATM   12  N   UNK     0      -8.534   2.963 -10.490  1.00  0.00    -0.118 NA
HETATM   13  C   UNK     0      -9.489   2.405  -9.735  1.00  0.00     0.295 C 
HETATM   14  O   UNK     0     -10.555   2.893  -9.361  1.00  0.00    -0.264 OA
BRANCH  13  15
HETATM   15  C   UNK     0      -9.243   0.985  -9.376  1.00  0.00     0.059 A 
HETATM   16  C   UNK     0      -8.204   0.703  -8.492  1.00  0.00     0.005 A 
HETATM   17  C   UNK     0      -8.046  -0.588  -7.998  1.00  0.00     0.004 A 
HETATM   18  C   UNK     0      -8.950  -1.606  -8.333  1.00  0.00     0.071 A 
HETATM   19  C   UNK     0      -9.942  -1.329  -9.279  1.00  0.00     0.004 A 
HETATM   20  C   UNK     0     -10.099  -0.038  -9.789  1.00  0.00     0.005 A 
BRANCH  18  21
HETATM   21  C   UNK     0      -8.799  -3.014  -7.727  1.00  0.00     0.419 C 
HETATM   22  F   UNK     0      -8.648  -4.422  -7.122  1.00  0.00    -0.166 F 
HETATM   23  F   UNK     0      -7.423  -2.805  -7.381  1.00  0.00    -0.166 F 
HETATM   24  F   UNK     0      -8.694  -3.656  -9.007  1.00  0.00    -0.166 F 
ENDBRANCH  18  21
ENDBRANCH  13  15
ENDBRANCH   1  12
BRANCH   5  25
HETATM   25  C   UNK     0      -9.983   8.107 -12.806  1.00  0.00     0.009 A 
HETATM   26  C   UNK     0     -10.768   8.730 -13.826  1.00  0.00     0.009 A 
HETATM   27  C   UNK     0     -11.247   8.655 -12.501  1.00  0.00     0.001 A 
ENDBRANCH   5  25
TORSDOF 5
ENDMDL
MODEL 18
REMARK VINA RESULT:      -6.5      5.427      9.522
REMARK  5 active torsions:
REMARK  status: ('A' for Active; 'I' for Inactive)
REMARK    1  A    between atoms: C_3  and  C_24 
REMARK    2  A    between atoms: C_6  and  C_7 
REMARK       I    between atoms: C_7  and  N_9 
REMARK    3  A    between atoms: N_9  and  N_10 
REMARK    4  A    between atoms: C_14  and  C_22 
REMARK    5  A    between atoms: C_17  and  C_21 
ROOT
HETATM    1  N   UNK     0     -11.241  -2.234  -7.927  1.00  0.00    -0.156 N 
HETATM    2  C   UNK     0     -10.514  -3.184  -7.267  1.00  0.00     0.279 C 
HETATM    3  O   UNK     0      -9.357  -3.214  -6.884  1.00  0.00    -0.265 OA
HETATM    4  C   UNK     0     -11.409  -4.338  -7.118  1.00  0.00     0.041 C 
HETATM    5  C   UNK     0     -11.094  -5.675  -7.141  1.00  0.00     0.049 C 
HETATM    6  C   UNK     0     -10.922  -6.048  -8.470  1.00  0.00    -0.026 C 
HETATM    7  C   UNK     0     -12.085  -5.789  -9.216  1.00  0.00    -0.026 C 
HETATM    8  C   UNK     0     -13.068  -5.232  -8.410  1.00  0.00     0.049 C 
HETATM    9  C   UNK     0     -12.562  -4.075  -7.869  1.00  0.00     0.041 C 
HETATM   10  C   UNK     0     -12.357  -2.772  -8.523  1.00  0.00     0.279 C 
HETATM   11  O   UNK     0     -13.020  -2.448  -9.493  1.00  0.00    -0.265 OA
ENDROOT
BRANCH   1  12
HETATM   12  N   UNK     0     -10.657  -0.967  -8.297  1.00  0.00    -0.118 NA
HETATM   13  C   UNK     0     -10.884   0.012  -7.411  1.00  0.00     0.295 C 
HETATM   14  O   UNK     0     -11.492  -0.045  -6.343  1.00  0.00    -0.264 OA
BRANCH  13  15
HETATM   15  C   UNK     0     -10.244   1.309  -7.746  1.00  0.00     0.059 A 
HETATM   16  C   UNK     0      -9.298   1.822  -6.861  1.00  0.00     0.005 A 
HETATM   17  C   UNK     0      -8.553   2.943  -7.215  1.00  0.00     0.004 A 
HETATM   18  C   UNK     0      -8.698   3.538  -8.475  1.00  0.00     0.071 A 
HETATM   19  C   UNK     0      -9.703   3.062  -9.324  1.00  0.00     0.004 A 
HETATM   20  C   UNK     0     -10.463   1.945  -8.970  1.00  0.00     0.005 A 
BRANCH  18  21
HETATM   21  C   UNK     0      -7.821   4.739  -8.877  1.00  0.00     0.419 C 
HETATM   22  F   UNK     0      -6.944   5.939  -9.278  1.00  0.00    -0.166 F 
HETATM   23  F   UNK     0      -6.761   3.904  -9.362  1.00  0.00    -0.166 F 
HETATM   24  F   UNK     0      -7.403   5.005  -7.529  1.00  0.00    -0.166 F 
ENDBRANCH  18  21
ENDBRANCH  13  15
ENDBRANCH   1  12
BRANCH   5  25
HETATM   25  C   UNK     0     -12.175  -6.324  -6.587  1.00  0.00     0.009 A 
HETATM   26  C   UNK     0     -11.760  -7.547  -5.974  1.00  0.00     0.009 A 
HETATM   27  C   UNK     0     -12.551  -6.622  -5.260  1.00  0.00     0.001 A 
ENDBRANCH   5  25
TORSDOF 5
ENDMDL
MODEL 19
REMARK VINA RESULT:      -6.4      2.123      3.027
REMARK  5 active torsions:
REMARK  status: ('A' for Active; 'I' for Inactive)
REMARK    1  A    between atoms: C_3  and  C_24 
REMARK    2  A    between atoms: C_6  and  C_7 
REMARK       I    between atoms: C_7  and  N_9 
REMARK    3  A    between atoms: N_9  and  N_10 
REMARK    4  A    between atoms: C_14  and  C_22 
REMARK    5  A    between atoms: C_17  and  C_21 
ROOT
HETATM    1  N   UNK     0      -9.304   4.695 -10.173  1.00  0.00    -0.156 N 
HETATM    2  C   UNK     0     -10.630   4.570 -10.476  1.00  0.00     0.279 C 
HETATM    3  O   UNK     0     -11.390   3.616 -10.461  1.00  0.00    -0.265 OA
HETATM    4  C   UNK     0     -11.058   5.893 -10.946  1.00  0.00     0.041 C 
HETATM    5  C   UNK     0     -11.984   6.201 -11.912  1.00  0.00     0.049 C 
HETATM    6  C   UNK     0     -11.383   6.014 -13.153  1.00  0.00    -0.026 C 
HETATM    7  C   UNK     0     -10.236   6.818 -13.277  1.00  0.00    -0.026 C 
HETATM    8  C   UNK     0     -10.033   7.562 -12.123  1.00  0.00     0.049 C 
HETATM    9  C   UNK     0      -9.909   6.685 -11.074  1.00  0.00     0.041 C 
HETATM   10  C   UNK     0      -8.761   5.830 -10.726  1.00  0.00     0.279 C 
HETATM   11  O   UNK     0      -7.632   6.128 -11.073  1.00  0.00    -0.265 OA
ENDROOT
BRANCH   1  12
HETATM   12  N   UNK     0      -8.528   3.563  -9.723  1.00  0.00    -0.118 NA
HETATM   13  C   UNK     0      -8.368   3.511  -8.394  1.00  0.00     0.295 C 
HETATM   14  O   UNK     0      -8.809   4.277  -7.538  1.00  0.00    -0.264 OA
BRANCH  13  15
HETATM   15  C   UNK     0      -7.620   2.324  -7.908  1.00  0.00     0.059 A 
HETATM   16  C   UNK     0      -6.330   2.119  -8.391  1.00  0.00     0.005 A 
HETATM   17  C   UNK     0      -5.533   1.121  -7.838  1.00  0.00     0.004 A 
HETATM   18  C   UNK     0      -5.987   0.349  -6.760  1.00  0.00     0.071 A 
HETATM   19  C   UNK     0      -7.309   0.512  -6.335  1.00  0.00     0.004 A 
HETATM   20  C   UNK     0      -8.119   1.503  -6.894  1.00  0.00     0.005 A 
BRANCH  18  21
HETATM   21  C   UNK     0      -5.069  -0.708  -6.117  1.00  0.00     0.419 C 
HETATM   22  F   UNK     0      -4.152  -1.765  -5.474  1.00  0.00    -0.166 F 
HETATM   23  F   UNK     0      -5.957  -0.922  -5.011  1.00  0.00    -0.166 F 
HETATM   24  F   UNK     0      -4.158   0.267  -5.589  1.00  0.00    -0.166 F 
ENDBRANCH  18  21
ENDBRANCH  13  15
ENDBRANCH   1  12
BRANCH   5  25
HETATM   25  C   UNK     0     -12.302   7.526 -11.717  1.00  0.00     0.009 A 
HETATM   26  C   UNK     0     -13.695   7.743 -11.951  1.00  0.00     0.009 A 
HETATM   27  C   UNK     0     -13.090   8.204 -10.763  1.00  0.00     0.001 A 
ENDBRANCH   5  25
TORSDOF 5
ENDMDL
MODEL 20
REMARK VINA RESULT:      -6.3      5.866      9.646
REMARK  5 active torsions:
REMARK  status: ('A' for Active; 'I' for Inactive)
REMARK    1  A    between atoms: C_3  and  C_24 
REMARK    2  A    between atoms: C_6  and  C_7 
REMARK       I    between atoms: C_7  and  N_9 
REMARK    3  A    between atoms: N_9  and  N_10 
REMARK    4  A    between atoms: C_14  and  C_22 
REMARK    5  A    between atoms: C_17  and  C_21 
ROOT
HETATM    1  N   UNK     0     -11.287  -2.596  -8.124  1.00  0.00    -0.156 N 
HETATM    2  C   UNK     0     -12.445  -2.937  -8.763  1.00  0.00     0.279 C 
HETATM    3  O   UNK     0     -13.267  -2.282  -9.381  1.00  0.00    -0.265 OA
HETATM    4  C   UNK     0     -12.626  -4.374  -8.519  1.00  0.00     0.041 C 
HETATM    5  C   UNK     0     -13.796  -5.072  -8.346  1.00  0.00     0.049 C 
HETATM    6  C   UNK     0     -14.236  -4.850  -7.045  1.00  0.00    -0.026 C 
HETATM    7  C   UNK     0     -13.264  -5.253  -6.114  1.00  0.00    -0.026 C 
HETATM    8  C   UNK     0     -12.143  -5.753  -6.763  1.00  0.00     0.049 C 
HETATM    9  C   UNK     0     -11.658  -4.766  -7.585  1.00  0.00     0.041 C 
HETATM   10  C   UNK     0     -10.907  -3.554  -7.216  1.00  0.00     0.279 C 
HETATM   11  O   UNK     0     -10.249  -3.515  -6.191  1.00  0.00    -0.265 OA
ENDROOT
BRANCH   1  12
HETATM   12  N   UNK     0     -10.816  -1.231  -8.106  1.00  0.00    -0.118 NA
HETATM   13  C   UNK     0      -9.979  -0.935  -9.109  1.00  0.00     0.295 C 
HETATM   14  O   UNK     0      -9.594  -1.658 -10.027  1.00  0.00    -0.264 OA
BRANCH  13  15
HETATM   15  C   UNK     0      -9.527   0.479  -9.139  1.00  0.00     0.059 A 
HETATM   16  C   UNK     0      -8.170   0.730  -9.328  1.00  0.00     0.005 A 
HETATM   17  C   UNK     0      -7.727   2.033  -9.533  1.00  0.00     0.004 A 
HETATM   18  C   UNK     0      -8.633   3.100  -9.607  1.00  0.00     0.071 A 
HETATM   19  C   UNK     0      -9.982   2.847  -9.341  1.00  0.00     0.004 A 
HETATM   20  C   UNK     0     -10.432   1.543  -9.122  1.00  0.00     0.005 A 
BRANCH  18  21
HETATM   21  C   UNK     0      -8.134   4.528  -9.898  1.00  0.00     0.419 C 
HETATM   22  F   UNK     0      -7.635   5.956 -10.189  1.00  0.00    -0.166 F 
HETATM   23  F   UNK     0      -6.963   4.065 -10.585  1.00  0.00    -0.166 F 
HETATM   24  F   UNK     0      -7.641   4.729  -8.564  1.00  0.00    -0.166 F 
ENDBRANCH  18  21
ENDBRANCH  13  15
ENDBRANCH   1  12
BRANCH   5  25
HETATM   25  C   UNK     0     -13.472  -6.397  -8.533  1.00  0.00     0.009 A 
HETATM   26  C   UNK     0     -14.534  -7.079  -9.203  1.00  0.00     0.009 A 
HETATM   27  C   UNK     0     -13.210  -7.179  -9.678  1.00  0.00     0.001 A 
ENDBRANCH   5  25
TORSDOF 5
ENDMDL
